LAMMPS (22 Jul 2025 - Update 2)
# Corrected PKA cascade script for GaN (metal units)
# - True 5 keV PKA injection
# - Boundary is a Langevin heat sink; core is NVE during ballistic phase
# - Adaptive timestep for ballistic phase, turned off for recovery
# - Dumps per-atom KE for verification

units           metal
dimension       3
boundary        p p p
atom_style      atomic

# ---- Read equilibrated structure ----
read_data       GaN_perfect_for_PKA.data
Reading data file ...
  orthogonal box = (0.62533591 0.23004371 0.046983629) to (95.044664 55.005056 62.176784)
  reading atoms ...
  28800 atoms
  reading velocities ...
  28800 velocities

mass 1 69.723    # Ga (g/mol)
mass 2 14.007    # N  (g/mol)

# ---- Potentials (ZBL overlay Tersoff) ----
pair_style hybrid/overlay tersoff zbl 0.5 1.2
pair_coeff * * tersoff GaN.tersoff Ga N
pair_coeff 1 1 zbl 31.0 31.0
pair_coeff 1 2 zbl 31.0 7.0
pair_coeff 2 2 zbl 7.0 7.0

neighbor        2.0 bin
neigh_modify    every 1 delay 0 check yes

# ---- Groups: core / boundary / species ----
variable skin equal 3.5

variable xlo equal 3.5
variable ylo equal 3.5
variable zlo equal 3.5

variable xhi equal lx-3.5
variable yhi equal ly-3.5
variable zhi equal lz-3.5

region core_region block 3.5 90.9193281847246 3.5 51.2750125984318 3.5 58.6298007411543 units box
group  core region core_region
20626 atoms in group core
group  boundary subtract all core
8174 atoms in group boundary
group  gallium type 1
14400 atoms in group gallium
group  nitrogen type 2
14400 atoms in group nitrogen

# ---- Reset timestep counter ----
reset_timestep  0

# ---- PKA selection ----
# Replace the ID below with your chosen PKA atom id
variable pka_id equal 14582
group    pka id 14582
1 atoms in group pka

variable n_pka equal count(pka)
DEBUG: PKA Group Size = 1

# ------------------------
# Set up integration & boundary control BEFORE assigning velocities
# ------------------------

# Integrate core and boundary (nve for actual integration)
fix core_nve     core     nve
fix boundary_nve boundary nve

# Apply Langevin thermostat to boundary as a heat sink
# Langevin adds damping forces; combined with nve on boundary atoms this is the correct pattern.
fix bath boundary langevin 300.0 300.0 0.1 123456

# ---- Zero thermal drift BEFORE assigning PKA velocity (clean start) ----
# Use a universal, version-safe command to zero all velocities.
velocity all set 0.0 0.0 0.0 units box

# ---- PKA energy --> velocity (conversion for metal units) ----
# E in eV, mass in g/mol, resulting v in A/ps
variable E equal 5000.0        # desired PKA energy (eV)
variable mass_pka equal 69.723 # Ga mass (g/mol)

# Pre-computed conversion factor for metal units:
# v(A/ps) = conv_factor * sqrt( E(eV) / mass(g/mol) )
# using physical constants yields approx 138.91388132458903
variable conv_factor equal 138.91388132458903

variable pka_v equal 138.913881324589*sqrt(5000/69.723)

# pick a random direction for the PKA
variable theta equal random(0.0,3.141592653589793,12345)
variable phi   equal random(0.0,6.283185307179586,67890)

variable st equal sin(2.73303825508777)
variable ct equal cos(0.0327540101874244)
variable sp equal sin(1.84454111560414)
variable cp equal cos(0.129702644601476)

variable vx equal 1176.36641054706*0.397283120711321*0.991600397289294
variable vy equal 1176.36641054706*0.397283120711321*0.962765288115936
variable vz equal 1176.36641054706*0.999463635363018

# sanity-check: compute back the energy implied by pka_v
variable E_check equal 69.723*(1176.36641054706/138.913881324589)^2

# print the computed values so you can confirm
print "---- PKA injection check ----"
---- PKA injection check ----
Computed PKA speed (A/ps) = 1176.36641054706
Computed direction (theta,phi) = 0.240896777357714, 1.90164931784141
Computed velocity components (A/ps) = 463.424959998539 449.948856770115 1175.73544920431
Energy implied by this speed (eV) = 5000
Requested PKA energy (eV) = 5000
print "--------------------------------"

# ---- Assign PKA velocity (single authoritative command) ----
velocity pka set 463.424959998539 449.948856770115 1175.73544920431 units box

# quick diagnostic without running dynamics (run 0). No warning since fixes were already declared.
run 0
Step          Temp          E_pair         E_mol          TotEng         Press
0   1746.6728     -125462.15      0             -118960.05      18564.408
Loop time of 3.757e-06 on 6 procs for 0 steps with 28800 atoms

# ---- Adaptive timestep for ballistic phase (turn on AFTER integration fixes exist) ----
# dt/reset: check every step, min dt 0.05 fs, max dt 0.2 fs, max disp 0.1 A per step
fix adapt_dt all dt/reset 1 5e-5 2e-4 0.1 units box

# ---- diagnostics: compute per-atom KE so we can dump / inspect PKA KE ----
compute ke_atom all ke/atom

# ---- Dynamics setup for ballistic phase ----
# Use conservative small fixed timestep as base; adapt_dt will reduce dt automatically when needed.
timestep        0.0002            # 0.2 fs (ps units)
thermo          100
thermo_style    custom step dt temp pe ke etotal press

# primary dump: coordinates + velocities + per-atom KE
dump 1 all custom 100 dump.cascade.lammpstrj id type x y z vx vy vz c_ke_atom
dump_modify 1 sort id

# ---- Ballistic phase (fast) ----
# run for ~1-2 ps to capture ballistic collisions; adapt_dt will adapt dt during violent events.
run 10000
Step           Dt            Temp          PotEng         KinEng         TotEng         Press
0   7.4544493e-05  1746.6728     -125462.15      6502.0996     -118960.05      18564.408
Averages over the last 51 of 101 rows, steps 5000 to 10000:
Dt Temp PotEng KinEng TotEng Press
0.0002 359.53 -125156 1338.37 -123817 6422.7
Loop time of 262.694 on 6 procs for 10000 steps with 28800 atoms

run 10000
Step           Dt            Temp          PotEng         KinEng         TotEng         Press
10000   0.0002         352.81911     -125219.15      1313.3913     -123905.76      5159.9832
Averages over the last 51 of 101 rows, steps 15000 to 20000:
Dt Temp PotEng KinEng TotEng Press
0.0002 334.328 -125320 1244.56 -124076 5007.83
Loop time of 275.566 on 6 procs for 10000 steps with 28800 atoms

# Turn off adaptive timestep before recovery
unfix adapt_dt

# ---- Recovery phase: extend NVE in core, keep boundary thermostat (already set) ----
# Increase timestep slightly as atoms slow down:
timestep 0.0005    # 0.5 fs

# Run recovery / recombination (here: 40000 * 0.0005 ps = 20 ps)
run 40000
Step           Dt            Temp          PotEng         KinEng         TotEng         Press
20000   0.0005         332.2149      -125339.5       1236.6909     -124102.81      4695.5279
Averages over the last 201 of 401 rows, steps 40000 to 60000:
Dt Temp PotEng KinEng TotEng Press
0.0005 307.178 -125561 1143.49 -124417 3938.98
Loop time of 1129.38 on 6 procs for 40000 steps with 28800 atoms

# ---- Finalize: write datafile of post-cascade structure ----
write_data GaN_post_cascade.data
System init for write_data ...

# End of script
