LAMMPS (22 Jul 2025 - Update 2)
# ============================================================
# PKA cascade simulation (GCR proton analogue)
# ============================================================

units           metal
dimension       3
boundary        p p p
atom_style      atomic

# ---- Read equilibrated structure ----
# Ensure filename matches your previous output exactly
read_data       GaN_bulk_equilibriated.data
Reading data file ...
  orthogonal box = (0.29690381 0.1714175 -0.084023312) to (28.404096 16.399113 31.195907)
  reading atoms ...
  1296 atoms
  reading velocities ...
  1296 velocities

mass 1 69.723    # Ga
mass 2 14.007    # N

# ---- 1. POTENTIALS (CRITICAL FIX) ----
# ZBL must only be active at very short ranges (r < 1.2 A)
# to avoid conflict with Tersoff at equilibrium (~1.95 A).
pair_style hybrid/overlay tersoff zbl 0.5 1.2
pair_coeff * * tersoff GaN.tersoff Ga N
pair_coeff 1 1 zbl 31.0 31.0
pair_coeff 1 2 zbl 31.0 7.0
pair_coeff 2 2 zbl 7.0 7.0

neighbor        2.0 bin
neigh_modify    every 1 delay 0 check yes

# ---- Groups ----
group gallium type 1
648 atoms in group gallium
group nitrogen type 2
648 atoms in group nitrogen

# ---- Reset timestep ----
reset_timestep  0

# ------------------------------------------------------------
# PKA Definition
# ------------------------------------------------------------

# Method: Find a Ga atom closest to the center (x=14, y=8, z=15)
# This avoids accidentally picking a Nitrogen atom or an edge atom.
variable        cx equal 14.0
variable        cy equal 8.0
variable        cz equal 15.0
group pka id 665
1 atoms in group pka
# Compute distance of every atom from center point
compute         dist all property/atom x y z
variable        dsq atom (c_dist[1]-v_cx)^2+(c_dist[2]-v_cy)^2+(c_dist[3]-v_cz)^2
# Find ID of min distance atom that is also Type 1 (Ga)
compute         min_dist gallium reduce min v_dsq
# (Note: For simplicity in script, we will just manually set a known safe Ga ID)
# Based on your file, Atom 653 is likely Ga (Type 1) and central.
group           pka id 653
2 atoms in group pka

# Remove thermal noise/drift before impact (Optional but cleaner)
velocity        all zero linear

# ---- 2. ENERGY & VELOCITY (CRITICAL FIX) ----
variable        E equal 5000.0       # PKA Energy in eV
variable        mass_pka equal 69.723 # Mass of Ga in g/mol

# Conversion factor: eV -> Joules, g/mol -> kg, m/s -> A/ps
# Factor approx 98.2269
variable        conv_factor equal 98.2269
variable        v equal v_conv_factor*sqrt(2.0*v_E/v_mass_pka)

# Random Direction
variable        theta equal random(0,3.14159,12345)
variable        phi   equal random(0,6.28318,67890)

variable        vx equal v_v*sin(v_theta)*cos(v_phi)
variable        vy equal v_v*sin(v_theta)*sin(v_phi)
variable        vz equal v_v*cos(v_theta)

# Launch the PKA!
velocity        pka set 466.350369450521 121.259848527691 1142.39765059885 units box

# ------------------------------------------------------------
# Dynamics
# ------------------------------------------------------------

# Use variable timestep (dt) for radiation?
# Usually fixed small dt is safer for beginners to avoid energy drift.
timestep        0.0002  # 0.2 fs (Conservative for high energy)

# NVE is required for the cascade (don't thermostat the heat spike!)
fix             1 all nve

# Electronic stopping (Optional for 5keV, but adds realism)
# fix           2 all electron/stopping 10.0  # (Requires installed package)

# ---- Output ----
# Dump often to catch the fast collision physics
dump            1 all custom 100 dump.cascade.lammpstrj id type x y z vx vy vz c_dist[1]
dump_modify     1 sort id

thermo          100
thermo_style    custom step temp pe ke etotal press

# ---- Run Cascade ----
# The ballistic phase is fast (< 1 ps)
run             10000
Step          Temp          PotEng         KinEng         TotEng         Press
0   13626.782     -5303.4106      2281.0128     -3022.3978      174033.16
Averages over the last 51 of 101 rows, steps 5000 to 10000:
Temp PotEng KinEng TotEng Press
7076.85 -4205.82 1184.61 -3021.21 633962
Loop time of 27.1949 on 6 procs for 10000 steps with 1296 atoms

# ---- Cooldown ----
# You can increase timestep slightly as system cools
timestep        0.0002
run             10000
Step          Temp          PotEng         KinEng         TotEng         Press
10000   7145.7624     -4217.123       1196.1427     -3020.9804      668610.61
Averages over the last 51 of 101 rows, steps 15000 to 20000:
Temp PotEng KinEng TotEng Press
7186.52 -4223.34 1202.97 -3020.38 627166
Loop time of 29.7316 on 6 procs for 10000 steps with 1296 atoms

write_data      GaN_post_cascade.data
System init for write_data ...
